Version 4
SHEET 1 1784 772
WIRE -368 -240 -560 -240
WIRE -208 -240 -368 -240
WIRE 80 -240 -208 -240
WIRE 176 -240 80 -240
WIRE 304 -240 176 -240
WIRE 400 -240 304 -240
WIRE -560 -224 -560 -240
WIRE 176 -224 176 -240
WIRE 304 -224 304 -240
WIRE -368 -176 -368 -192
WIRE 80 -160 80 -240
WIRE 96 -160 80 -160
WIRE 400 -160 400 -240
WIRE 400 -160 384 -160
WIRE -560 -128 -560 -144
WIRE -368 -128 -368 -176
WIRE 96 -64 64 -64
WIRE 432 -64 384 -64
WIRE 64 -48 64 -64
WIRE 432 -48 432 -64
WIRE -608 32 -768 32
WIRE -464 32 -608 32
WIRE -304 32 -464 32
WIRE -144 32 -304 32
WIRE -64 32 -144 32
WIRE 64 32 64 16
WIRE 64 32 16 32
WIRE 96 32 64 32
WIRE 432 32 432 16
WIRE 432 32 384 32
WIRE 464 32 432 32
WIRE 592 32 544 32
WIRE 752 32 592 32
WIRE 912 32 752 32
WIRE 1056 32 912 32
WIRE 1216 32 1056 32
WIRE -768 48 -768 32
WIRE -608 48 -608 32
WIRE -464 48 -464 32
WIRE -144 48 -144 32
WIRE 752 48 752 32
WIRE 1216 64 1216 32
WIRE 912 80 912 32
WIRE 1056 80 1056 32
WIRE -304 128 -304 112
WIRE -144 128 -144 112
WIRE -144 128 -304 128
WIRE 96 128 -144 128
WIRE 592 128 592 112
WIRE 592 128 384 128
WIRE 752 128 752 112
WIRE 752 128 592 128
WIRE -768 144 -768 128
WIRE -608 144 -608 112
WIRE -464 144 -464 112
WIRE -304 144 -304 128
WIRE 592 144 592 128
WIRE 752 144 752 128
WIRE 1056 144 1056 128
WIRE -144 160 -144 128
WIRE 912 176 912 144
WIRE 1056 176 1056 144
WIRE 1216 176 1216 144
WIRE 416 192 64 192
WIRE 64 224 64 192
WIRE 96 224 64 224
WIRE 416 224 416 192
WIRE 416 224 384 224
WIRE -304 240 -304 224
WIRE -144 240 -144 224
WIRE 592 240 592 224
WIRE 752 240 752 208
WIRE 16 320 0 320
WIRE 96 320 80 320
WIRE 432 320 384 320
WIRE 512 320 496 320
WIRE 96 416 80 416
WIRE 416 416 416 224
WIRE 416 416 384 416
WIRE 432 416 416 416
WIRE 512 416 496 416
WIRE 96 608 16 608
WIRE 400 608 384 608
WIRE 16 624 16 608
WIRE 304 672 304 656
WIRE 16 720 16 704
FLAG -560 -128 0
FLAG 80 416 0
FLAG 0 320 0
FLAG 304 672 0
FLAG 512 320 0
FLAG 400 608 0
FLAG -560 -240 IN1
FLAG 512 416 0
FLAG -304 240 0
FLAG -768 144 0
FLAG -608 144 0
FLAG -768 32 OUT1
FLAG 592 240 0
FLAG 1216 32 OUT2
FLAG -144 240 0
FLAG -464 144 0
FLAG 752 240 0
FLAG 912 176 0
FLAG 1056 176 0
FLAG 1216 176 0
FLAG -208 -176 0
FLAG 16 720 0
FLAG -368 -128 0
SYMBOL PowerProducts\\LT8650S 240 208 R0
SYMATTR InstName U1
SYMBOL voltage -560 -240 R0
WINDOW 123 0 0 Left 2
WINDOW 39 0 0 Left 2
WINDOW 0 46 53 Left 2
WINDOW 3 37 78 Left 2
SYMATTR InstName Vin1
SYMATTR Value 24V
SYMBOL cap 80 304 R90
WINDOW 0 0 32 VBottom 2
WINDOW 3 32 32 VTop 2
SYMATTR InstName C3
SYMATTR Value 470p
SYMBOL cap 432 304 M90
WINDOW 0 0 32 VBottom 2
WINDOW 3 32 32 VTop 2
SYMATTR InstName C6
SYMATTR Value 470p
SYMBOL cap 432 400 M90
WINDOW 0 0 32 VBottom 2
WINDOW 3 32 32 VTop 2
SYMATTR InstName C7
SYMATTR Value 1µ
SYMBOL ind -80 48 R270
WINDOW 0 32 56 VTop 2
WINDOW 3 5 56 VBottom 2
SYMATTR InstName Lo1
SYMATTR Value 1u
SYMATTR SpiceLine Rser=4.2m
SYMBOL res -320 16 R0
SYMATTR InstName RfbTop1
SYMATTR Value 1000k
SYMBOL res -320 128 R0
SYMATTR InstName RfbBot1
SYMATTR Value 191k
SYMBOL cap -160 48 R0
SYMATTR InstName CfbTop1
SYMATTR Value 7p
SYMBOL cap -624 48 R0
WINDOW 3 28 42 Left 2
WINDOW 123 31 71 Left 2
SYMATTR Value 21.124143u
SYMATTR Value2 x2
SYMATTR InstName Coc1
SYMATTR SpiceLine Rser=2.6m Lser=0.4322n
SYMBOL ind 448 48 R270
WINDOW 0 32 56 VTop 2
WINDOW 3 5 56 VBottom 2
SYMATTR InstName Lo2
SYMATTR Value 1u
SYMATTR SpiceLine Rser=4.2m
SYMBOL res 576 16 R0
SYMATTR InstName RfbTop2
SYMATTR Value 1000k
SYMBOL res 576 128 R0
SYMATTR InstName RfbBot2
SYMATTR Value 316k
SYMBOL cap 736 48 R0
SYMATTR InstName CfbTop2
SYMATTR Value 7p
SYMBOL cap -160 160 R0
SYMATTR InstName CfbBot1
SYMATTR Value 0p
SYMBOL polcap -480 48 R0
WINDOW 3 38 56 Left 2
WINDOW 123 35 85 Left 2
SYMATTR Value 0u
SYMATTR Value2 x0
SYMATTR InstName Cob1
SYMATTR Description Capacitor
SYMATTR Type cap
SYMATTR SpiceLine Rser=0m Lser=0n
SYMBOL current -768 48 R0
WINDOW 3 24 80 Invisible 2
WINDOW 123 0 0 Left 2
WINDOW 39 0 0 Left 2
SYMATTR Value PWL(0 2 1m 2 1.01m 4 1.3m 4)
SYMATTR InstName LoadStep1
SYMBOL cap 736 144 R0
SYMATTR InstName CfbBot2
SYMATTR Value 2p
SYMBOL cap 896 80 R0
WINDOW 3 28 42 Left 2
WINDOW 123 31 71 Left 2
SYMATTR Value 33.431857u
SYMATTR Value2 x2
SYMATTR InstName Coc2
SYMATTR SpiceLine Rser=2.6m Lser=0.4322n
SYMBOL polcap 1040 80 R0
WINDOW 3 38 56 Left 2
WINDOW 123 35 85 Left 2
SYMATTR Value 0u
SYMATTR Value2 x0
SYMATTR InstName Cob2
SYMATTR Description Capacitor
SYMATTR Type cap
SYMATTR SpiceLine Rser=0m Lser=0n
SYMBOL current 1216 64 R0
WINDOW 3 24 80 Invisible 2
WINDOW 123 0 0 Left 2
WINDOW 39 0 0 Left 2
SYMATTR Value PWL(0 2 1m 2 1.01m 4 1.3m 4)
SYMATTR InstName LoadStep2
SYMBOL cap -224 -240 R0
WINDOW 0 41 6 Left 2
WINDOW 3 39 32 Left 2
WINDOW 123 35 62 Left 2
SYMATTR InstName Cinc1
SYMATTR Value 2.164857u
SYMATTR Value2 x2
SYMBOL res 32 720 R180
WINDOW 0 36 76 Left 2
WINDOW 3 36 40 Left 2
SYMATTR InstName Rfreq_1
SYMATTR Value 14.7k
SYMBOL polcap -384 -240 R0
WINDOW 3 42 36 Left 2
WINDOW 123 39 64 Left 2
SYMATTR Value 20u
SYMATTR Value2 x0
SYMATTR InstName Cinb1
SYMATTR Description Capacitor
SYMATTR Type cap
SYMBOL cap 448 -48 M0
WINDOW 3 24 49 Left 2
SYMATTR Value 470p
SYMATTR InstName C1
SYMBOL cap 80 -48 M0
SYMATTR InstName C2
SYMATTR Value 470p
TEXT 528 672 Left 2 !.tran .4m startup
